UCSDcircuit_evlaods.dss
Clear
New Circuit.ucsdMicrogrid bus1=SDG&E_69KV basekv=69 pu=1 angle=0 frequency=60 MVAsc3=20000 MVAsc1=20000 x1r1=8.6 x0r0=8.9 BaseFreq=60
New Linecode.1_0_Cu r1=0.269029 x1=0.108268 r0=0.429790 x0=0.272310 units=km
New Linecode.2_0_Cu r1=0.216535 x1=0.104987 r0=0.341207 x0=0.269029 units=km
New Linecode.3_0_Cu r1=0.172244 x1=0.098425 r0=0.270669 x0=0.262467 units=km
New Linecode.4_0_Cu r1=0.134514 x1=0.098425 r0=0.213255 x0=0.249344 units=km
New Linecode.6_Cu r1=726.213911 x1=97.539370 r0=2288.615486 x0=240.223097 units=km
New Linecode.10_Cu r1=1680.282152 x1=121.620735 r0=5295.472441 x0=299.475066 units=km
New Linecode.250_Cu r1=1.154856 x1=1.650262 r0=7.034121 x0=6.617454 units=km
New Linecode.350_Cu r1=0.695538 x1=0.748031 r0=1.108924 x0=1.896325 units=km
New Linecode.500_Cu r1=0.059055 x1=0.088583 r0=0.095144 x0=0.239501 units=km
New Linecode.600_Cu r1=0.023950 x1=0.131234 r0=0.148950 x0=0.695538 units=km
New Linecode.750_Cu r1=0.042651 x1=0.082021 r0=0.068898 x0=0.213255 units=km
New Line.CBL_0581 bus1=E_7_10_2_11 bus2=E_1_9_1_11 Linecode=500_Cu length=9.906000e+01 units=m
New Line.CBL_0583 bus1=SS23_14 bus2=SS_23_WC Linecode=600_Cu length=3.048000e-01 units=m
New Line.CBL_0726 bus1=SS_126 bus2=BUS_0861 Linecode=750_Cu length=3.048000e-01 units=m
New Line.CBL_0727 bus1=SS_126 bus2=BUS_0862 Linecode=750_Cu length=3.048000e-01 units=m
New Line.CBL_0728 bus1=SS_127 bus2=BUS_0865 Linecode=750_Cu length=3.048000e-01 units=m
New Line.CBL_0729 bus1=SS_127 bus2=BUS_0866 Linecode=750_Cu length=3.048000e-01 units=m
New Line.CBL_E_4_1_404 bus1=E_4_404 bus2=E_4_1_404 Linecode=750_Cu length=5.791200e+01 units=m  
New Line.CBL_E_4_1_405 bus1=E_4_405 bus2=E_4_1_405 Linecode=750_Cu length=5.791200e+01 units=m
New Line.CBL_E_4_1_409 bus1=E_4_409 bus2=E_4_1_409 Linecode=500_Cu length=6.126480e+01 units=m
New Line.CBL_E_4_2_404 bus1=E_4_1_404 bus2=E_4_2_404 Linecode=750_Cu length=6.797040e+01 units=m
New Line.CBL_E_4_2_405 bus1=E_4_1_405 bus2=E_4_2_405 Linecode=750_Cu length=6.797040e+01 units=m
New Line.CBL_E_4_2_409 bus1=E_4_1_409 bus2=E_4_2_409 Linecode=500_Cu length=7.467600e+01 units=m
New Line.CBL_E_4_404 bus1=MCSS_MB bus2=E_4_404 Linecode=750_Cu length=3.810000e+01 units=m
New Line.CBL_E_4_405 bus1=MCSS_MA bus2=E_4_405 Linecode=750_Cu length=3.048000e+01 units=m
New Line.CBL_E_4_407 bus1=MCSS_MA bus2=E_4_407 Linecode=750_Cu length=3.048000e+01 units=m
New Line.CBL_E_4_409 bus1=MCSS_MA bus2=E_4_409 Linecode=500_Cu length=3.352800e+01 units=m
New Line.CBL_E_4_413 bus1=MCSS_MA bus2=E_4_413 Linecode=500_Cu length=6.400800e+01 units=m
New Line.CBL_E_4_9_413 bus1=E_5_8_1_413 bus2=E_4_9_413 Linecode=750_Cu length=1.524000e+02 units=m
New Line.CBL_E_5_3_1_SS_138 bus1=E_5_3_SS_138 bus2=E_5_3_1_SS_138 Linecode=500_Cu length=6.096000e+00 units=m
New Line.CBL_E_5_3_412 bus1=E_5_1_412 bus2=E_5_3_412 Linecode=500_Cu length=2.651760e+02 units=m
New Line.CBL_E_5_3_437 bus1=E_5_1_437 bus2=E_5_3_437 Linecode=500_Cu length=2.651760e+02 units=m
New Line.CBL_E_5_3_SS_138 bus1=SS_51_EC bus2=E_5_3_SS_138 Linecode=500_Cu length=1.524000e+01 units=m
New Line.CBL_E_5_4_2_404 bus1=E_4_2_404 bus2=E_5_4_2_404 Linecode=750_Cu length=3.810000e+01 units=m
New Line.CBL_E_5_4_2_405 bus1=E_4_2_405 bus2=E_5_4_2_405 Linecode=750_Cu length=3.810000e+01 units=m
New Line.CBL_E_5_4_406 bus1=E_4_406 bus2=E_5_4_406 Linecode=750_Cu length=6.248400e+01 units=m
New Line.CBL_E_5_4_407 bus1=E_4_407 bus2=E_5_4_407 Linecode=750_Cu length=6.248400e+01 units=m
New Line.CBL_E_5_4_413 bus1=E_4_413 bus2=E_5_4_413 Linecode=500_Cu length=6.248400e+01 units=m
New Line.CBL_E_5_4_436 bus1=E_4_436 bus2=E_5_4_436 Linecode=500_Cu length=6.248400e+01 units=m
New Line.CBL_E_5_7_413 bus1=E_5_4_413 bus2=E_5_7_413 Linecode=750_Cu length=1.085088e+02 units=m
New Line.CBL_E_5_8_1_413 bus1=E_5_7_413 bus2=E_5_8_1_413 Linecode=750_Cu length=1.356360e+02 units=m
New Line.CBL_E_6A_5_EC_12 bus1=E_6A_2_EC_12 bus2=E_6A_5_EC_12 Linecode=750_Cu length=1.271016e+02 units=m
New Line.CBL_E_6A_5_EC_25 bus1=E_6A_2_EC_25 bus2=E_6A_5_EC_25 Linecode=750_Cu length=1.271016e+02 units=m
New Line.CBL_E_6A_5_EC_37 bus1=E_5_1_37 bus2=E_6A_5_EC_37 Linecode=750_Cu length=1.292352e+02 units=m
New Line.CBL_E_6A_6_EC_12 bus1=E_6A_5_EC_12 bus2=E_6A_6_EC_12 Linecode=750_Cu length=1.325880e+02 units=m
New Line.CBL_E_6A_6_EC_25 bus1=E_6A_5_EC_25 bus2=E_6A_6_EC_25 Linecode=750_Cu length=1.325880e+02 units=m
New Line.CBL_E_6A_6_EC_37 bus1=E_6A_5_EC_37 bus2=E_6A_6_EC_37 Linecode=750_Cu length=1.325880e+02 units=m
New Line.CBL_EMH_E_4_406 bus1=MCSS_MB bus2=E_4_406 Linecode=750_Cu length=3.810000e+01 units=m
New Line.CBL_EMH_E_4_436 bus1=MCSS_MC bus2=E_4_436 Linecode=500_Cu length=4.876800e+01 units=m
New Line.CBL_EMH_E_5_1_412 bus1=E_6A_5_412 bus2=E_5_1_412 Linecode=500_Cu length=1.292352e+02 units=m
New Line.CBL_EMH_E_5_1A_437 bus1=E_6A_5_MA_437 bus2=E_5_1_437 Linecode=500_Cu length=1.292352e+02 units=m
New Line.CBL_EMH_E_5_8_1_406 bus1=E_5_7_406 bus2=E_5_8_1_406 Linecode=750_Cu length=1.356360e+02 units=m
New Line.CBL_EMH_E_5_8_1_407 bus1=E_5_7_407 bus2=E_5_8_1_407 Linecode=750_Cu length=1.356360e+02 units=m
New Line.CBL_EMH_E_6A_5_412 bus1=E_6A_6_412 bus2=E_6A_5_412 Linecode=500_Cu length=1.325880e+02 units=m
New Line.CBL_EMH_E_6A_5_437 bus1=E_6A_6_MA_437 bus2=E_6A_5_MA_437 Linecode=500_Cu length=1.325880e+02 units=m
New Line.CBl_EMH_E_6A_6_437 bus1=MCSS_MC bus2=E_6A_6_MA_437 Linecode=500_Cu length=2.895600e+01 units=m
New Line.CBL_EMH_E6A_6_412 bus1=MCSS_MB bus2=E_6A_6_412 Linecode=500_Cu length=3.657600e+01 units=m
New Line.CBL_MCSS_MA bus1=E_6A_6_EC_25 bus2=MCSS_MA Linecode=750_Cu length=3.810000e+01 units=m
New Line.CBL_MCSS_MB bus1=E_6A_6_EC_12 bus2=MCSS_MB Linecode=750_Cu length=3.048000e+01 units=m
New Line.CBL_MCSS_MC bus1=E_6A_6_EC_37 bus2=MCSS_MC Linecode=750_Cu length=2.438400e+01 units=m
New Line.CBL_SS_102_406 bus1=E_5_8_1_406 bus2=SS_102_EC Linecode=750_Cu length=8.107680e+01 units=m
New Line.CBL_SS_103_407 bus1=E_5_8_1_407 bus2=SS_103_EC Linecode=750_Cu length=8.107680e+01 units=m
New Line.CBL_SS_114_EC bus1=E_5_4_2_405 bus2=SS_114_EC Linecode=750_Cu length=6.858000e+01 units=m
New Line.CBL_SS_115_EC bus1=E_5_4_2_404 bus2=SS_115_EC Linecode=750_Cu length=6.858000e+01 units=m
New Line.CBL_SS_125_MCSS_409 bus1=E_4_2_409 bus2=SS_125_MCSS Linecode=500_Cu length=2.011680e+01 units=m
New Line.CBL_SS_126_407 bus1=E_5_8_1_407 bus2=SS_126 Linecode=750_Cu length=8.839200e+01 units=m
New Line.CBL_SS_127_406 bus1=E_5_8_1_406 bus2=SS_127 Linecode=750_Cu length=8.839200e+01 units=m
New Line.CBL_SS_130 bus1=E_4_2_405 bus2=SS_130 Linecode=750_Cu length=5.245608e+02 units=m
New Line.CBL_SS_131 bus1=E_4_2_404 bus2=SS_131 Linecode=750_Cu length=5.257800e+02 units=m
New Line.CBL_SS_138 bus1=E_5_3_2_SS_138 bus2=SS_138 Linecode=500_Cu length=1.524000e+01 units=m
New Line.CBL_T_304_EC_PS bus1=SS_125_MCSS bus2=BUS_PD_T_304 Linecode=500_Cu length=7.620000e+00 units=m
New Line.CBL_T_JMC_TEMP_PWR bus1=SS_125_MCSS bus2=BUS_JMC_TEMP_PWR_LI_SW Linecode=500_Cu length=4.267200e+02 units=m
New Line.CBL_T_JMC_TEMP_PWR_PRI bus1=BUS_JMC_TEMP_PWR_LI_SW bus2=BUS_JMC_TEMP_PWR_PRI Linecode=4_0_Cu length=3.657600e+00 units=m
New Line.CBL_XF_CPT_1A bus1=MCSS_MA bus2=BUS_XF_CPT_1A Linecode=1_0_Cu length=2.773680e+01 units=m
New Line.CBL_XF_CPT_1B bus1=MCSS_MB bus2=BUS_XF_CPT_1B Linecode=1_0_Cu length=3.048000e+01 units=m
New Line.CBL_XF_CPT_1C bus1=MCSS_MC bus2=BUS_XF_CPT_1C Linecode=2_0_Cu length=2.438400e+01 units=m
New Line.CBL_XF_CPT_C bus1=EAST_CAMPUS_1 bus2=BUS_XF_CPT_C_PRI Linecode=2_0_Cu length=1.676400e+01 units=m
New Line.CBL_XF_CPT_E bus1=EAST_CAMPUS_1 bus2=BUS_XF_CPT_E_PRI Linecode=2_0_Cu length=1.524000e+01 units=m
New Line.CBL_XF_CPT_W bus1=EAST_CAMPUS_1 bus2=BUS_XF_CPT_W_PRI Linecode=2_0_Cu length=1.828800e+01 units=m
New Line.F_1SG1 bus1=SG1_BUS bus2=PSB Linecode=500_Cu length=8.534400e+01 units=m
New Line.F_3RD_C_S166 bus1=E_7_19_4 bus2=3RD_C_S166_PRI Linecode=2_0_Cu length=7.162800e+01 units=m
New Line.F_3RD_C_S206 bus1=E_7_19_1 bus2=3RD_C_S206PRI Linecode=500_Cu length=8.839200e+01 units=m
New Line.F_3RD_C_S207 bus1=3RD_C_S206PRI bus2=T_207_PRI Linecode=500_Cu length=9.144000e+01 units=m
New Line.F_ALEX_SP bus1=E_7_26_1 bus2=ALEX_SP_PRI Linecode=4_0_Cu length=7.924800e+01 units=m
New Line.F_ARGO_BLAKE bus1=SS_35_RC bus2=T_342_PRI Linecode=500_Cu length=4.114800e+01 units=m
New Line.F_ATHL_FIELD bus1=E_7_23_1 bus2=T_242_PRI Linecode=250_Cu length=1.676400e+02 units=m
New Line.F_B_BOX_REST bus1=SS_88_RC bus2=B_BOX_REST_PRI Linecode=500_Cu length=8.534400e+01 units=m
New Line.F_B_SCI_PB3_102 bus1=PB_1_102 bus2=B_SCI_PB3_102 Linecode=500_Cu length=4.724400e+01 units=m
New Line.F_B_SCI_PB3_105 bus1=PB_1_105 bus2=B_SCI_PB3_105 Linecode=500_Cu length=4.724400e+01 units=m
New Line.F_B_SCI_PB4_102 bus1=B_SCI_PB3_102 bus2=B_SCI_PB4_102 Linecode=500_Cu length=5.181600e+01 units=m
New Line.F_B_SCI_PB4_105 bus1=B_SCI_PB3_105 bus2=B_SCI_PB4_105 Linecode=500_Cu length=5.181600e+01 units=m
New Line.F_BIO_MED bus1=SS_95_SOM bus2=PRI_BIO_MED Linecode=500_Cu length=3.810000e+01 units=m
New Line.F_BIRCH_AQ bus1=SS_64_SIO bus2=BUS_T_223_PRI Linecode=4_0_Cu length=7.620000e+01 units=m
New Line.F_BLACK_BOX bus1=SS_88_RC bus2=BLACK_BOX_PRI Linecode=500_Cu length=3.048000e+01 units=m
New Line.F_BLDG_3C_12 bus1=BLDG_3B_12KV bus2=BLDG_3C_12KV Linecode=500_Cu length=4.267200e+01 units=m
New Line.F_BLDG_3C_15 bus1=BLDG_3B_15 bus2=BLDG3C_15_12KV Linecode=500_Cu length=4.267200e+01 units=m
New Line.F_BONNER_LCA bus1=SS_36_RC bus2=SW_T_119 Linecode=2_0_Cu length=1.066800e+01 units=m
New Line.F_BONNER_LCB bus1=SS_36_RC bus2=SW_T_120 Linecode=2_0_Cu length=1.371600e+01 units=m
New Line.F_BONNER_LCC bus1=SS_36_RC bus2=SW_T_121_1 Linecode=2_0_Cu length=7.620000e+01 units=m
New Line.F_BRAIN_IMAGE bus1=SS_95_SOM bus2=PRI_BIO_MED_1 Linecode=500_Cu length=3.657600e+01 units=m
New Line.F_BSB_MTF_TUN_102 bus1=E_1_2_102 bus2=BSB_MTF_TUN_102 Linecode=500_Cu length=6.705600e+01 units=m
New Line.F_BSB_MTF_TUN_105 bus1=E_1_2_105 bus2=BSB_MTF_TUN_105 Linecode=500_Cu length=6.705600e+01 units=m
New Line.F_BUS_NC14 bus1=BUS_NC_14 bus2=N_CAMPUS_B Linecode=500_Cu length=9.144000e-01 units=m
New Line.F_BUS_NC15 bus1=E_7_C_NC3 bus2=N_CAMPUS_C Linecode=500_Cu length=1.524000e+02 units=m
New Line.F_BUS_NC17 bus1=E_7_C_NC2 bus2=N_CAMPUS_B Linecode=500_Cu length=1.524000e+02 units=m
New Line.F_BUS_NC18 bus1=BUS_NC17 bus2=N_CAMPUS_A Linecode=500_Cu length=9.144000e-01 units=m
New Line.F_BUS_NC19 bus1=E_7_B_NC3 bus2=E_7_C_NC3 Linecode=500_Cu length=9.601200e+01 units=m
New Line.F_C_LIB_S182 bus1=E_1_6_8 bus2=S182_8 Linecode=500_Cu length=4.572000e+01 units=m
New Line.F_C_LIB_S183 bus1=S182_8 bus2=S183_8 Linecode=500_Cu length=9.144000e-01 units=m
New Line.F_C_LIB_S184 bus1=S183_8 bus2=C_LIB_S184_PRI Linecode=500_Cu length=3.048000e-01 units=m
New Line.F_C_UNION bus1=SS_50_SC bus2=T_253_PRI Linecode=500_Cu length=1.767840e+02 units=m
New Line.F_CB_52_TB bus1=BUS_52_TB bus2=MSG Linecode=250_Cu length=1.524000e+01 units=m
New Line.F_CH_1 bus1=SUB_1A bus2=BUS_CH_1 Linecode=500_Cu length=9.144000e+00 units=m
New Line.F_CH_2 bus1=SUB_1A bus2=BUS_CH_2 Linecode=500_Cu length=9.144000e+00 units=m
New Line.F_CLASSROOM bus1=SS_28_SIO bus2=BUS_T_238_PRI Linecode=500_Cu length=6.096000e+00 units=m
New Line.F_CLIN_SCI_102 bus1=E_1_2_2_1_102 bus2=CLIN_SCI_12KV Linecode=500_Cu length=1.645920e+02 units=m
New Line.F_CT34_PSB bus1=PSB bus2=SW_T_087 Linecode=500_Cu length=4.572000e+01 units=m
New Line.F_E_1_0_1_104 bus1=E_1_0_104 bus2=E_1_0_1_104 Linecode=500_Cu length=1.249680e+02 units=m
New Line.F_E_1_0_1_107 bus1=E_1_0_107 bus2=E_1_0_1_107 Linecode=500_Cu length=1.249680e+02 units=m
New Line.F_E_1_0_104 bus1=REVELLE_2 bus2=E_1_0_104 Linecode=500_Cu length=1.066800e+02 units=m
New Line.F_E_1_0_107 bus1=REVELLE_1 bus2=E_1_0_107 Linecode=500_Cu length=1.066800e+02 units=m
New Line.F_E_1_0_1A_104 bus1=E_1_0_1_104 bus2=E_1_0_1A_104 Linecode=500_Cu length=8.229600e+01 units=m
New Line.F_E_1_0_1A_107 bus1=E_1_0_1_107 bus2=E_1_0_1A_107 Linecode=500_Cu length=8.229600e+01 units=m
New Line.F_E_1_0_2_107 bus1=E_1_0_1A_107 bus2=E_1_0_2_107 Linecode=500_Cu length=1.219200e+02 units=m
New Line.F_E_1_0_2A_104 bus1=E_1_0_1A_104 bus2=E_1_0_2A_104 Linecode=500_Cu length=1.341120e+02 units=m
New Line.F_E_1_0_2A_107 bus1=E_1_0_1A_107 bus2=E_1_0_2A_107 Linecode=500_Cu length=1.341120e+02 units=m
New Line.F_E_1_0_2B_104 bus1=E_1_0_2A_104 bus2=E_1_0_2B_104 Linecode=500_Cu length=4.572000e+01 units=m
New Line.F_E_1_0_2B_107__1 bus1=E_1_0_2A_107 bus2=E_1_0_2B_107 Linecode=500_Cu length=4.572000e+01 units=m
New Line.F_E_1_0_2B_107__2 bus1=E_1_0_2B_107 bus2=SS_136 Linecode=500_Cu length=4.572000e+01 units=m
New Line.F_E_1_0_3A_104 bus1=E_1_0_2A_104 bus2=E_1_0_3A_104 Linecode=500_Cu length=4.572000e+01 units=m
New Line.F_E_1_0_3A_107 bus1=E_1_0_2A_107 bus2=E_1_0_3A_107 Linecode=500_Cu length=4.572000e+01 units=m
New Line.F_E_1_1_102 bus1=E_1_2_0_102 bus2=E_1_1_102 Linecode=500_Cu length=1.158240e+02 units=m
New Line.F_E_1_1_105 bus1=E_1_2_0_105 bus2=E_1_1_105 Linecode=500_Cu length=1.158240e+02 units=m
New Line.F_E_1_1_19 bus1=E_1_2_0_19 bus2=E_1_1_19 Linecode=500_Cu length=1.158240e+02 units=m
New Line.F_E_1_1_4 bus1=E_1_2_0_4 bus2=E_1_1_4 Linecode=500_Cu length=1.158240e+02 units=m
New Line.F_E_1_1_EG bus1=E_2_1_EG bus2=E_1_1_EG Linecode=250_Cu length=1.097280e+02 units=m
New Line.F_E_1_10_11 bus1=E_1_10_11 bus2=E_1_11_11 Linecode=500_Cu length=6.858000e+01 units=m
New Line.F_E_1_10_8 bus1=E_1_10_8 bus2=E_1_11_8 Linecode=500_Cu length=6.858000e+01 units=m
New Line.F_E_1_11_11 bus1=E_1_11_11 bus2=E_1_12_11 Linecode=500_Cu length=9.144000e+01 units=m
New Line.F_E_1_11_8 bus1=E_1_11_8 bus2=E_1_12_8 Linecode=500_Cu length=9.144000e+01 units=m
New Line.F_E_1_19 bus1=E_7_17_1_338 bus2=SS_120_ERC Linecode=500_Cu length=1.295400e+02 units=m
New Line.F_E_1_2_0_102 bus1=E_1_2_102 bus2=E_1_2_0_102 Linecode=500_Cu length=9.144000e+00 units=m
New Line.F_E_1_2_0_105 bus1=E_1_2_105 bus2=E_1_2_0_105 Linecode=500_Cu length=9.144000e+00 units=m
New Line.F_E_1_2_0_19 bus1=E_1_2_19 bus2=E_1_2_0_19 Linecode=500_Cu length=9.144000e+00 units=m
New Line.F_E_1_2_0_4 bus1=E_1_2_4 bus2=E_1_2_0_4 Linecode=500_Cu length=9.144000e+00 units=m
New Line.F_E_1_2_1_102 bus1=E_1_2_102 bus2=E_1_2_1_102 Linecode=500_Cu length=1.021080e+02 units=m
New Line.F_E_1_2_1_105 bus1=E_1_2_105 bus2=E_1_2_1_105 Linecode=500_Cu length=1.021080e+02 units=m
New Line.F_E_1_2_102 bus1=E_1_3_102 bus2=E_1_2_102 Linecode=500_Cu length=1.249680e+02 units=m
New Line.F_E_1_2_105 bus1=E_1_3_105 bus2=E_1_2_105 Linecode=500_Cu length=1.249680e+02 units=m
New Line.F_E_1_2_19 bus1=E_1_3_19 bus2=E_1_2_19 Linecode=500_Cu length=1.249680e+02 units=m
New Line.F_E_1_2_2_1_102 bus1=E_1_2_2_102 bus2=E_1_2_2_1_102 Linecode=500_Cu length=3.048000e+00 units=m
New Line.F_E_1_2_2_102 bus1=B_SCI_PB4_102 bus2=E_1_2_2_102 Linecode=500_Cu length=4.876800e+01 units=m
New Line.F_E_1_2_2_105 bus1=B_SCI_PB4_105 bus2=E_1_2_2_105 Linecode=500_Cu length=4.876800e+01 units=m
New Line.F_E_1_2_3_105 bus1=E_1_2_2_105 bus2=E_1_2_3_105 Linecode=500_Cu length=9.906000e+01 units=m
New Line.F_E_1_2_4 bus1=E_1_3_4 bus2=E_1_2_4 Linecode=500_Cu length=1.249680e+02 units=m
New Line.F_E_1_2_EG bus1=SS_84 bus2=E_1_2_EG Linecode=250_Cu length=9.144000e+00 units=m
New Line.F_E_1_20 bus1=SS_119_ERC bus2=E_7_17_1_307 Linecode=500_Cu length=1.295400e+02 units=m
New Line.F_E_1_3_11 bus1=E_1_4_11 bus2=E_1_3_11 Linecode=500_Cu length=1.234440e+02 units=m
New Line.F_E_1_3_19 bus1=E_1_3_19 bus2=E_6_16_19 Linecode=500_Cu length=7.162800e+01 units=m
New Line.F_E_1_3_4 bus1=E_1_3_4 bus2=E_6_16_4 Linecode=500_Cu length=7.162800e+01 units=m
New Line.F_E_1_3_8 bus1=E_1_4_8 bus2=E_1_3_8 Linecode=500_Cu length=1.234440e+02 units=m
New Line.F_E_1_4_1_11 bus1=E_1_4_1_11 bus2=E_1_4_11 Linecode=500_Cu length=7.772400e+01 units=m
New Line.F_E_1_4_1_8 bus1=E_1_4_1_8 bus2=E_1_4_8 Linecode=500_Cu length=7.772400e+01 units=m
New Line.F_E_1_4_11 bus1=E_1_5_11 bus2=E_1_4_11 Linecode=500_Cu length=1.447800e+02 units=m
New Line.F_E_1_4_2_11 bus1=E_1_4_2_11 bus2=E_1_4_1_11 Linecode=500_Cu length=9.144000e+01 units=m
New Line.F_E_1_4_2_8 bus1=E_1_4_2_8 bus2=E_1_4_1_8 Linecode=500_Cu length=9.144000e+01 units=m
New Line.F_E_1_4_3_11 bus1=E_1_4_3_11 bus2=E_1_4_2_11 Linecode=500_Cu length=9.144000e+01 units=m
New Line.F_E_1_4_4_1_304 bus1=E_1_4_4_1_304 bus2=E_1_4_4_304 Linecode=500_Cu length=8.229600e+01 units=m
New Line.F_E_1_4_4_1_305 bus1=E_1_4_4_1_305 bus2=E_1_4_4_305 Linecode=500_Cu length=8.229600e+01 units=m
New Line.F_E_1_4_4_304 bus1=E_1_9_2_304 bus2=E_1_4_4_304 Linecode=500_Cu length=1.097280e+02 units=m
New Line.F_E_1_4_4_305 bus1=E_1_9_2_305 bus2=E_1_4_4_305 Linecode=500_Cu length=1.097280e+02 units=m
New Line.F_E_1_4_5_304 bus1=E_1_4_5_304 bus2=E_1_4_4_304 Linecode=500_Cu length=1.615440e+02 units=m
New Line.F_E_1_4_5_305 bus1=E_1_4_5_305 bus2=E_1_4_4_305 Linecode=500_Cu length=1.615440e+02 units=m
New Line.F_E_1_4_8 bus1=E_1_5_8 bus2=E_1_4_8 Linecode=500_Cu length=1.447800e+02 units=m
New Line.F_E_1_5_11 bus1=E_1_6_11 bus2=E_1_5_11 Linecode=500_Cu length=9.753600e+01 units=m
New Line.F_E_1_5_8 bus1=E_1_6_8 bus2=E_1_5_8 Linecode=500_Cu length=9.753600e+01 units=m
New Line.F_E_1_6_11 bus1=E_1_7_11 bus2=E_1_6_11 Linecode=500_Cu length=1.219200e+02 units=m
New Line.F_E_1_6_8 bus1=E_1_7_8 bus2=E_1_6_8 Linecode=500_Cu length=1.219200e+02 units=m
New Line.F_E_1_7_11 bus1=E_1_8_11 bus2=E_1_7_11 Linecode=500_Cu length=1.188720e+02 units=m
New Line.F_E_1_7_8 bus1=E_1_8_8 bus2=E_1_7_8 Linecode=500_Cu length=1.188720e+02 units=m
New Line.F_E_1_8_11 bus1=E_1_9_11 bus2=E_1_8_11 Linecode=500_Cu length=3.048000e+01 units=m
New Line.F_E_1_8_8 bus1=E_1_9_8 bus2=E_1_8_8 Linecode=500_Cu length=3.048000e+01 units=m
New Line.F_E_1_9_1 bus1=E_1_9_8 bus2=E_1_9_1_8 Linecode=500_Cu length=1.219200e+01 units=m
New Line.F_E_1_9_1_11 bus1=E_1_9_11 bus2=E_1_9_1_11 Linecode=500_Cu length=1.219200e+01 units=m
New Line.F_E_1_9_1_8 bus1=E_7_10_2_8 bus2=E_1_9_1_8 Linecode=500_Cu length=9.906000e+01 units=m
New Line.F_E_1_9_11 bus1=E_1_10_11 bus2=E_1_9_11 Linecode=500_Cu length=9.144000e+01 units=m
New Line.F_E_1_9_2_11 bus1=E_1_9_1_11 bus2=E_1_9_2_11 Linecode=500_Cu length=7.162800e+01 units=m
New Line.F_E_1_9_2_304 bus1=E_1_9_2_304 bus2=E_1_9_3_304 Linecode=500_Cu length=1.097280e+02 units=m
New Line.F_E_1_9_2_305 bus1=E_1_9_2_305 bus2=E_1_9_3_305 Linecode=500_Cu length=1.097280e+02 units=m
New Line.F_E_1_9_2_8 bus1=E_1_9_1_8 bus2=E_1_9_2_8 Linecode=500_Cu length=7.162800e+01 units=m
New Line.F_E_1_9_3_304 bus1=E_1_9_4_304 bus2=E_1_9_3_304 Linecode=500_Cu length=7.315200e+01 units=m
New Line.F_E_1_9_3_305 bus1=E_1_9_4_305 bus2=E_1_9_3_305 Linecode=500_Cu length=7.315200e+01 units=m
New Line.F_E_1_9_4_304 bus1=E_1_9_4_304 bus2=E_1_9_5_304 Linecode=500_Cu length=1.005840e+02 units=m
New Line.F_E_1_9_4_305 bus1=E_1_9_4_305 bus2=E_1_9_5_305 Linecode=500_Cu length=1.005840e+02 units=m
New Line.F_E_1_9_5_304 bus1=E_7_C_304 bus2=E_1_9_5_304 Linecode=500_Cu length=1.036320e+02 units=m
New Line.F_E_1_9_5_305 bus1=E_7_C_305 bus2=E_1_9_5_305 Linecode=500_Cu length=1.036320e+02 units=m
New Line.F_E_1_9_8 bus1=E_1_10_8 bus2=E_1_9_8 Linecode=500_Cu length=9.144000e+01 units=m
New Line.F_E_10_10_109 bus1=E_10_11_109 bus2=E_10_10_109 Linecode=500_Cu length=5.486400e+01 units=m
New Line.F_E_10_10_110 bus1=E_10_11_110 bus2=E_10_10_110 Linecode=500_Cu length=5.486400e+01 units=m
New Line.F_E_10_10_202 bus1=E_10_11_202 bus2=E_10_10_202 Linecode=4_0_Cu length=5.486400e+01 units=m
New Line.F_E_10_10_205 bus1=E_10_11_205 bus2=E_10_10_205 Linecode=4_0_Cu length=5.486400e+01 units=m
New Line.F_E_10_11_1_202 bus1=E_10_10_202 bus2=E_10_11_1_202 Linecode=4_0_Cu length=9.601200e+01 units=m
New Line.F_E_10_11_1_205 bus1=E_10_10_205 bus2=E_10_11_1_205 Linecode=4_0_Cu length=9.601200e+01 units=m
New Line.F_E_10_11_10_109 bus1=E_10_11_11_109 bus2=E_10_11_10_109 Linecode=500_Cu length=3.352800e+01 units=m
New Line.F_E_10_11_10_110 bus1=E_10_11_11_110 bus2=E_10_11_10_110 Linecode=500_Cu length=3.352800e+01 units=m
New Line.F_E_10_11_109 bus1=E_10_11_2_109 bus2=E_10_11_109 Linecode=500_Cu length=9.448800e+01 units=m
New Line.F_E_10_11_11_109 bus1=E_10_11_12_109 bus2=E_10_11_11_109 Linecode=500_Cu length=1.051560e+02 units=m
New Line.F_E_10_11_11_110 bus1=E_10_11_12_110 bus2=E_10_11_11_110 Linecode=500_Cu length=1.051560e+02 units=m
New Line.F_E_10_11_110 bus1=E_10_11_2_110 bus2=E_10_11_110 Linecode=500_Cu length=9.448800e+01 units=m
New Line.F_E_10_11_12_109 bus1=E_10_11_13_109 bus2=E_10_11_12_109 Linecode=500_Cu length=1.203960e+02 units=m
New Line.F_E_10_11_12_110 bus1=E_10_11_13_110 bus2=E_10_11_12_110 Linecode=500_Cu length=1.203960e+02 units=m
...
New Transformer.T_105_BSB windings=2 buses=(BUS_T_105_PRI,T_105_SEC) conns=(D,WG) kvs=(4.160,0.480 ) kvas=(1000.0,1333.0) xhl=5.730 %rs=(1.00,1.00) xhl=5.730 maxtap=1.05 mintap=0.95 numtaps=4
New Transformer.T_106_MED_TEACH windings=2 buses=(BUS_T_106_PRI,MED_TEACHING) conns=(D,WG) kvs=(12.470,0.480 ) kvas=(1500.0,2000.0) xhl=5.940 %rs=(0.91,0.91) xhl=5.940 maxtap=1.05 mintap=0.95 numtaps=4
New Transformer.T_107_MTF windings=2 buses=(BUS_T_107_PRI,ED2) conns=(D,WG) kvs=(4.160,0.480 ) kvas=(300.0,300.0) xhl=4.080 %rs=(0.98,0.98) xhl=4.080 maxtap=1.05 mintap=0.95 numtaps=4
New Transformer.T_109_HEALTH_CEN windings=2 buses=(SS_56_MC,HEALTH_CENTER) conns=(D,WG) kvs=(12.470,0.208 ) kvas=(300.0,300.0) xhl=4.860 %rs=(1.17,1.17) xhl=4.860 maxtap=1.05 mintap=0.95 numtaps=4
New Transformer.T_112_US_TF windings=2 buses=(BUS_T_112_PRI,SOM_SUB_E) conns=(D,WG) kvs=(4.160,0.480 ) kvas=(1000.0,1000.0) xhl=6.110 %rs=(1.07,1.07) xhl=6.110 maxtap=1.05 mintap=0.95 numtaps=4
New Transformer.T_114 windings=2 buses=(BUS_T_114_PRI,T_114_SEC) conns=(D,WG) kvs=(12.470,0.480 ) kvas=(1500.0,1500.0) xhl=5.760 %rs=(0.88,0.88) xhl=5.760 maxtap=1.05 mintap=0.95 numtaps=4
New Transformer.T_115 windings=2 buses=(BUS_T_115_PRI,ED6) conns=(D,WG) kvs=(4.160,0.208 ) kvas=(150.0,150.0) xhl=5.110 %rs=(1.42,1.42) xhl=5.110 maxtap=1.05 mintap=0.95 numtaps=4
New Transformer.T_116_BLDG_3B windings=2 buses=(SW_T_303/304,CRB_3B_208V) conns=(D,WG) kvs=(12.470,0.208 ) kvas=(750.0,750.0) xhl=5.870 %rs=(1.12,1.12) xhl=5.870 maxtap=1.05 mintap=0.95 numtaps=4
New Transformer.T_117_BLDG_3B windings=2 buses=(SW_T_301/302,CRB_3B) conns=(D,WG) kvs=(12.470,0.480 ) kvas=(750.0,750.0) xhl=5.350 %rs=(1.02,1.02) xhl=5.350 maxtap=1.05 mintap=0.95 numtaps=4
New Transformer.T_118_BLDG_3C windings=2 buses=(SW_T_305/306,COG_SCI_3C_480V) conns=(D,WG) kvs=(12.470,0.480 ) kvas=(500.0,500.0) xhl=5.120 %rs=(1.09,1.09) xhl=5.120 maxtap=1.05 mintap=0.95 numtaps=4
New Transformer.T_119_BLDG_3C windings=2 buses=(SW_T_307/308,COG_SCI_3C_208V) conns=(D,WG) kvs=(12.470,0.208 ) kvas=(300.0,300.0) xhl=5.200 %rs=(1.25,1.25) xhl=5.200 maxtap=1.05 mintap=0.95 numtaps=4
New Transformer.T_120_BLDG_3F windings=2 buses=(SW_T_309/310,MEDIA_3F_480V) conns=(D,WG) kvs=(12.470,0.480 ) kvas=(300.0,300.0) xhl=4.930 %rs=(1.19,1.19) xhl=4.930 maxtap=1.05 mintap=0.95 numtaps=4
New Transformer.T_121_BLDG_3F windings=2 buses=(SW_T_311/312,MEDIA_3F_208V) conns=(D,WG) kvs=(12.470,0.208 ) kvas=(300.0,300.0) xhl=5.250 %rs=(1.27,1.27) xhl=5.250 maxtap=1.05 mintap=0.95 numtaps=4
New Transformer.T_123_HUBBS_HALL windings=2 buses=(BUS_T_123_PRI,HUBBS_HALL) conns=(D,WG) kvs=(12.470,0.480 ) kvas=(2000.0,2000.0) xhl=6.240 %rs=(0.86,0.86) xhl=6.240 maxtap=1.05 mintap=0.95 numtaps=4
New Transformer.T_124_MARINE_SCI windings=2 buses=(BUS_T_124_PRI,MARINE_SCIENCE) conns=(D,WG) kvs=(12.470,0.208 ) kvas=(300.0,300.0) xhl=1.480 %rs=(0.36,0.36) xhl=1.480 maxtap=1.05 mintap=0.95 numtaps=4
New Transformer.T_126_NIER windings=2 buses=(BUS_T_126_PRI,NIERENBURG) conns=(D,WG) kvs=(12.470,0.480 ) kvas=(750.0,750.0) xhl=5.710 %rs=(1.09,1.09) xhl=5.710 maxtap=1.05 mintap=0.95 numtaps=4
New Transformer.T_134_STUD windings=2 buses=(STUDENT_PRI,STUDENT_T226) conns=(D,WG) kvs=(12.470,0.208 ) kvas=(300.0,300.0) xhl=4.760 %rs=(1.15,1.15) xhl=4.760 maxtap=1.05 mintap=0.95 numtaps=4
New Transformer.T_135_FACULTY windings=2 buses=(SS_41_MC,FACULTY_CLUB) conns=(D,WG) kvs=(12.470,0.208 ) kvas=(300.0,300.0) xhl=3.900 %rs=(0.94,0.94) xhl=3.900 maxtap=1.05 mintap=0.95 numtaps=4
New Transformer.T_136_POWELL windings=2 buses=(BUS_T_136_PRI,POWELL_STRUCT) conns=(D,WG) kvs=(12.470,0.480 ) kvas=(2000.0,2240.0) xhl=5.670 %rs=(0.71,0.71) xhl=5.670 maxtap=1.05 mintap=0.95 numtaps=4
New Transformer.T_137_EBU1 windings=2 buses=(T_137_PRI,T_137_SEC_EBU1) conns=(D,WG) kvs=(12.470,0.480 ) kvas=(1500.0,2000.0) xhl=6.110 %rs=(0.93,0.93) xhl=6.110 maxtap=1.05 mintap=0.95 numtaps=4
New Transformer.T_138_EBU1 windings=2 buses=(T_138_PRI,EBU1_T_138) conns=(D,WG) kvs=(12.470,0.480 ) kvas=(1500.0,2000.0) xhl=6.020 %rs=(0.75,0.75) xhl=6.020 maxtap=1.05 mintap=0.95 numtaps=4
New Transformer.T_139_EBU1 windings=2 buses=(BUS_T_139_PRI,EBU1_T_139) conns=(D,WG) kvs=(12.470,0.208 ) kvas=(1000.0,1333.0) xhl=6.120 %rs=(1.07,1.07) xhl=6.120 maxtap=1.05 mintap=0.95 numtaps=4
New Transformer.T_140_EBU1 windings=2 buses=(T_140_PRI,EBU1_T_140) conns=(D,WG) kvs=(12.470,0.208 ) kvas=(750.0,1000.0) xhl=5.610 %rs=(1.07,1.07) xhl=5.610 maxtap=1.05 mintap=0.95 numtaps=4
New Transformer.T_143_UREY windings=2 buses=(SS_97_RC,LC_C_UREY) conns=(D,WG) kvs=(12.470,0.480 ) kvas=(1000.0,1000.0) xhl=5.570 %rs=(0.97,0.97) xhl=5.570 maxtap=1.05 mintap=0.95 numtaps=4
New Transformer.T_144_MAYER windings=2 buses=(SS_70_RC,MAYER_480V) conns=(D,WG) kvs=(12.470,0.480 ) kvas=(500.0,667.0) xhl=5.570 %rs=(1.19,1.19) xhl=5.570 maxtap=1.05 mintap=0.95 numtaps=4
New Transformer.T_145_BSCI_S3 windings=2 buses=(BUS_T_145_PRI,BASIC_SCI_SUB3) conns=(D,WG) kvs=(12.470,0.480 ) kvas=(500.0,500.0) xhl=5.970 %rs=(1.27,1.27) xhl=5.970 maxtap=1.05 mintap=0.95 numtaps=4
New Transformer.T_146_BSCI_S2 windings=2 buses=(BUS_T_146_PRI,BASIC_SCI_SUB2) conns=(D,WG) kvs=(12.470,0.208 ) kvas=(1000.0,1000.0) xhl=6.110 %rs=(1.07,1.07) xhl=6.110 maxtap=1.05 mintap=0.95 numtaps=4
New Transformer.T_147_BSCI_S1 windings=2 buses=(BUS_T_147_PRI,BASIC_SCI_SUB1) conns=(D,WG) kvs=(12.470,0.208 ) kvas=(750.0,750.0) xhl=6.090 %rs=(1.16,1.16) xhl=6.090 maxtap=1.05 mintap=0.95 numtaps=4
New Transformer.T_148_BSCI_S4 windings=2 buses=(BUS_T_148_PRI,BASIC_SCI_SUB4) conns=(D,WG) kvs=(12.470,0.208 ) kvas=(1000.0,1000.0) xhl=6.010 %rs=(1.05,1.05) xhl=6.010 maxtap=1.05 mintap=0.95 numtaps=4
New Transformer.T_149_B_2B_480V windings=2 buses=(SS_55_MC,LC1_2B_480V) conns=(D,WG) kvs=(12.470,0.480 ) kvas=(500.0,666.0) xhl=5.970 %rs=(1.27,1.27) xhl=5.970 maxtap=1.05 mintap=0.95 numtaps=4
New Transformer.T_150_B_2B_208V windings=2 buses=(SS_55_MC,T_150_SEC_LC2) conns=(D,WG) kvs=(12.470,0.208 ) kvas=(750.0,1000.0) xhl=6.090 %rs=(1.16,1.16) xhl=6.090 maxtap=1.05 mintap=0.95 numtaps=4
New Transformer.T_151_PHYS_ED windings=2 buses=(PHYS_ED_PRI,PHYS_ED_BLDGS) conns=(D,WG) kvs=(12.470,0.480 ) kvas=(500.0,500.0) xhl=4.400 %rs=(0.94,0.94) xhl=4.400 maxtap=1.05 mintap=0.95 numtaps=4
New Transformer.T_152_TA windings=2 buses=(BUS_T_152_PRI,SWBD_A) conns=(D,WG) kvs=(12.470,4.160 ) kvas=(2500.0,2800.0) xhl=5.500 %rs=(0.52,0.52) xhl=5.500 maxtap=1.05 mintap=0.95 numtaps=4
New Transformer.T_154_BONNER_LCB windings=2 buses=(SW_T_120,BONNER_LC_B) conns=(D,WG) kvs=(12.470,0.480 ) kvas=(500.0,500.0) xhl=5.380 %rs=(1.15,1.15) xhl=5.380 maxtap=1.05 mintap=0.95 numtaps=4
New Transformer.T_155_BONNER_LCA windings=2 buses=(SW_T_119,BONNER_LC_A) conns=(D,WG) kvs=(12.470,0.208 ) kvas=(750.0,750.0) xhl=5.700 %rs=(1.09,1.09) xhl=5.700 maxtap=1.05 mintap=0.95 numtaps=4
New Transformer.T_156_TES windings=2 buses=(BUS_T_156_PRI,TES) conns=(D,WG) kvs=(12.470,0.480 ) kvas=(1000.0,1000.0) xhl=5.710 %rs=(1.00,1.00) xhl=5.710 maxtap=1.05 mintap=0.95 numtaps=4
New Transformer.T_157_BLDG_2D windings=2 buses=(SW_T_209/210,BUILDING_2D) conns=(D,WG) kvs=(12.470,0.480 ) kvas=(1000.0,1000.0) xhl=5.710 %rs=(1.00,1.00) xhl=5.710 maxtap=1.05 mintap=0.95 numtaps=4
New Transformer.T_158_NORPAX windings=2 buses=(SS_66_SIO,NORPAX) conns=(D,WG) kvs=(12.470,0.480 ) kvas=(1000.0,1000.0) xhl=6.010 %rs=(1.05,1.05) xhl=6.010 maxtap=1.05 mintap=0.95 numtaps=4
New Transformer.T_159_P_E windings=2 buses=(BUS_T_159_PRI,BUS_T_159_SEC) conns=(D,WG) kvs=(12.470,0.480 ) kvas=(300.0,300.0) xhl=3.400 %rs=(0.82,0.82) xhl=3.400 maxtap=1.05 mintap=0.95 numtaps=4
New Transformer.T_160_ALEX_SP windings=2 buses=(ALEX_SP_PRI,ALEX_SPANOS) conns=(D,WG) kvs=(12.470,0.480 ) kvas=(300.0,300.0) xhl=3.400 %rs=(0.82,0.82) xhl=3.400 maxtap=1.05 mintap=0.95 numtaps=4
New Transformer.T_162_WAR_COL_2 windings=2 buses=(SW_T_162,WARREN_COL_2) conns=(D,WG) kvs=(12.470,0.208 ) kvas=(225.0,250.0) xhl=3.490 %rs=(0.90,0.90) xhl=3.490 maxtap=1.05 mintap=0.95 numtaps=4
New Transformer.T_163_WAR_COL_3 windings=2 buses=(SW_T_163,WARREN_COL_3) conns=(D,WG) kvs=(12.470,0.208 ) kvas=(225.0,250.0) xhl=3.200 %rs=(0.82,0.82) xhl=3.200 maxtap=1.05 mintap=0.95 numtaps=4
New Transformer.T_164_WAR_COL_1 windings=2 buses=(WAR_COL_1_PRI,WARREN_COL_1) conns=(D,WG) kvs=(12.470,0.208 ) kvas=(150.0,150.0) xhl=2.890 %rs=(0.81,0.81) xhl=2.890 maxtap=1.05 mintap=0.95 numtaps=4
New Transformer.T_166 windings=2 buses=(SW_T_166,T_287_SEC) conns=(D,WG) kvs=(12.470,0.208 ) kvas=(75.0,75.0) xhl=2.770 %rs=(0.88,0.88) xhl=2.770 maxtap=1.05 mintap=0.95 numtaps=4
New Transformer.T_167_MATH windings=2 buses=(SW_T_167,MATHEWS_S167) conns=(D,WG) kvs=(12.470,0.208 ) kvas=(75.0,75.0) xhl=3.230 %rs=(1.08,1.08) xhl=3.230 maxtap=1.05 mintap=0.95 numtaps=4
New Transformer.T_168_MATH windings=2 buses=(SW_T_168,MATHEWS_S168) conns=(D,WG) kvs=(12.470,0.208 ) kvas=(500.0,500.0) xhl=4.550 %rs=(1.52,1.52) xhl=4.550 maxtap=1.05 mintap=0.95 numtaps=4
New Transformer.T_169_P_CYN windings=2 buses=(SW_T_169,PEP_CYN_S169) conns=(D,WG) kvs=(12.470,0.208 ) kvas=(75.0,75.0) xhl=3.230 %rs=(1.08,1.08) xhl=3.230 maxtap=1.05 mintap=0.95 numtaps=4
New Transformer.T_170_INAT_HOUSE windings=2 buses=(SW_T_170,INAT_HOUSE) conns=(D,WG) kvs=(12.470,0.208 ) kvas=(150.0,150.0) xhl=2.760 %rs=(0.92,0.92) xhl=2.760 maxtap=1.05 mintap=0.95 numtaps=4
New Transformer.T_171_C_SERVICE windings=2 buses=(C_SERVICE_PRI,T_171_SEC) conns=(D,WG) kvs=(12.470,0.480 ) kvas=(1500.0,1500.0) xhl=5.910 %rs=(0.90,0.90) xhl=5.910 maxtap=1.05 mintap=0.95 numtaps=4
New Transformer.T_172_GRN_HSE windings=2 buses=(SS_22_WC,GREENHOUSE) conns=(D,WG) kvs=(12.470,0.208 ) kvas=(300.0,300.0) xhl=4.480 %rs=(1.49,1.49) xhl=4.480 maxtap=1.05 mintap=0.95 numtaps=4
New Transformer.T_173_IOF windings=2 buses=(IOF_PRI,INST_OF_AMER) conns=(D,WG) kvs=(12.470,0.208 ) kvas=(150.0,150.0) xhl=4.240 %rs=(1.02,1.02) xhl=4.240 maxtap=1.05 mintap=0.95 numtaps=4
New Transformer.T_174_IRPS windings=2 buses=(IRPS_PRI,IRPS) conns=(D,WG) kvs=(12.470,0.480 ) kvas=(300.0,300.0) xhl=3.690 %rs=(0.89,0.89) xhl=3.690 maxtap=1.05 mintap=0.95 numtaps=4
New Transformer.T_178_3RD_C windings=2 buses=(3RD_C_S166_PRI,3RD_C_RES) conns=(D,WG) kvs=(12.470,0.208 ) kvas=(500.0,500.0) xhl=3.810 %rs=(0.81,0.81) xhl=3.810 maxtap=1.05 mintap=0.95 numtaps=4
New Transformer.T_179_O_VIEW windings=2 buses=(BUS_T_179_PRI,T_179_OCEANVIEW_SEC) conns=(D,WG) kvs=(12.470,0.208 ) kvas=(75.0,75.0) xhl=3.220 %rs=(1.02,1.02) xhl=3.220 maxtap=1.05 mintap=0.95 numtaps=4
New Transformer.T_18_MUIR_APTS windings=2 buses=(SS_62_MC,MUIR_APTS) conns=(D,WG) kvs=(12.470,0.208 ) kvas=(750.0,1000.0) xhl=5.990 %rs=(1.14,1.14) xhl=5.990 maxtap=1.05 mintap=0.95 numtaps=4
New Transformer.T_180_BSCI_S5 windings=2 buses=(BUS_T_180_PRI,BASIC_SCI_SUB5) conns=(D,WG) kvs=(12.470,0.480 ) kvas=(1000.0,1000.0) xhl=5.720 %rs=(0.78,0.78) xhl=5.720 maxtap=1.05 mintap=0.95 numtaps=4
New Transformer.T_181_BSCI_S7 windings=2 buses=(BUS_T_181_PRI,BASIC_SCI_SUB7) conns=(D,WG) kvs=(12.470,0.208 ) kvas=(1000.0,1333.0) xhl=5.470 %rs=(0.96,0.96) xhl=5.470 maxtap=1.05 mintap=0.95 numtaps=4
New Transformer.T_182_C_LIB windings=2 buses=(SW_T_010/011,CEN_LIB_S182) conns=(D,WG) kvs=(12.470,0.480 ) kvas=(750.0,750.0) xhl=5.300 %rs=(1.01,1.01) xhl=5.300 maxtap=1.05 mintap=0.95 numtaps=4
New Transformer.T_183_C_LIB windings=2 buses=(SW_T_008/009,CEN_LIB_S183) conns=(D,WG) kvs=(12.470,0.480 ) kvas=(750.0,750.0) xhl=5.300 %rs=(1.01,1.01) xhl=5.300 maxtap=1.05 mintap=0.95 numtaps=4
New Transformer.T_184_C_LIB windings=2 buses=(C_LIB_S184_PRI,CEN_LIB_S184) conns=(D,WG) kvs=(12.470,0.480 ) kvas=(1500.0,1500.0) xhl=5.650 %rs=(0.86,0.86) xhl=5.650 maxtap=1.05 mintap=0.95 numtaps=4
New Transformer.T_186_FORUM_THEATRE windings=2 buses=(BUS_T_186_PRI,T_186_SEC) conns=(D,WG) kvs=(12.470,0.480 ) kvas=(750.0,750.0) xhl=5.310 %rs=(1.01,1.01) xhl=5.310 maxtap=1.05 mintap=0.95 numtaps=4
New Transformer.T_187_MANDELL_W windings=2 buses=(MANDEL_W_PRI,MANDELL_WEISS) conns=(D,WG) kvs=(12.470,0.208 ) kvas=(750.0,750.0) xhl=5.650 %rs=(1.08,1.08) xhl=5.650 maxtap=1.05 mintap=0.95 numtaps=4
New Transformer.T_188_I&R_BLDG windings=2 buses=(SW_T_042/043,I&R_BLDG) conns=(D,WG) kvs=(12.470,0.480 ) kvas=(1500.0,1500.0) xhl=5.950 %rs=(0.74,0.74) xhl=5.950 maxtap=1.05 mintap=0.95 numtaps=4
New Transformer.T_189_HI_BAY_PH windings=2 buses=(HI_BAY_PH_PRI,HI_BAY_PHYSICS) conns=(D,WG) kvs=(12.470,0.480 ) kvas=(500.0,500.0) xhl=4.400 %rs=(0.94,0.94) xhl=4.400 maxtap=1.05 mintap=0.95 numtaps=4
New Transformer.T_19_TIOGA windings=2 buses=(BUS_T_19_PRI,TIOGA) conns=(D,WG) kvs=(12.470,0.208 ) kvas=(500.0,500.0) xhl=5.260 %rs=(1.12,1.12) xhl=5.260 maxtap=1.05 mintap=0.95 numtaps=4
New Transformer.T_190_SIO_LIBRARY windings=2 buses=(SS_26_SIO,SIO_LIBRARY) conns=(D,WG) kvs=(12.470,0.480 ) kvas=(750.0,750.0) xhl=5.260 %rs=(1.00,1.00) xhl=5.260 maxtap=1.05 mintap=0.95 numtaps=4
New Transformer.T_191 windings=2 buses=(BUS_T_191_PRI,T_191_SEC) conns=(D,WG) kvs=(4.160,0.480 ) kvas=(225.0,225.0) xhl=5.230 %rs=(1.34,1.34) xhl=5.230 maxtap=1.05 mintap=0.95 numtaps=4
New Transformer.T_192_MANDEVILLE windings=2 buses=(SW_T_219,MANDEVILLE_CTR) conns=(D,WG) kvs=(12.470,0.480 ) kvas=(1500.0,1500.0) xhl=5.780 %rs=(0.88,0.88) xhl=5.780 maxtap=1.05 mintap=0.95 numtaps=4
New Transformer.T_193_C_SCI_SUBA windings=2 buses=(C_SCI_SUBA_PRI,CLIN_SCI_SUB_A) conns=(D,WG) kvs=(12.470,0.208 ) kvas=(1000.0,1000.0) xhl=5.890 %rs=(1.03,1.03) xhl=5.890 maxtap=1.05 mintap=0.95 numtaps=4
New Transformer.T_194_C_SCI_SUBB windings=2 buses=(C_SCI_SUBB_PRI,CLIN_SCI_SUB_B) conns=(D,WG) kvs=(12.470,0.480 ) kvas=(1500.0,1500.0) xhl=5.910 %rs=(0.90,0.90) xhl=5.910 maxtap=1.05 mintap=0.95 numtaps=4
New Transformer.T_195_B2C windings=2 buses=(BUS_T_195_PRI,BLDG_2C_208V) conns=(D,WG) kvs=(12.470,0.208 ) kvas=(1000.0,1000.0) xhl=6.010 %rs=(1.05,1.05) xhl=6.010 maxtap=1.05 mintap=0.95 numtaps=4
New Transformer.T_196_B2C windings=2 buses=(BUS_T_196_PRI,BLDG_2C_480V) conns=(D,WG) kvs=(12.470,0.480 ) kvas=(1000.0,1000.0) xhl=5.960 %rs=(1.04,1.04) xhl=5.960 maxtap=1.05 mintap=0.95 numtaps=4
New Transformer.T_197_SUB3 windings=2 buses=(BUS_T_197_PRI,SUB_3) conns=(D,WG) kvs=(12.470,0.480 ) kvas=(1000.0,1000.0) xhl=5.470 %rs=(0.96,0.96) xhl=5.470 maxtap=1.05 mintap=0.95 numtaps=4
New Transformer.T_198_SUB1 windings=2 buses=(BUS_T_198_PRI,SUB_1) conns=(D,WG) kvs=(12.470,0.480 ) kvas=(2500.0,2500.0) xhl=5.870 %rs=(0.56,0.56) xhl=5.870 maxtap=1.05 mintap=0.95 numtaps=4
New Transformer.T_199_SUB2 windings=2 buses=(BUS_T_199_PRI,SUB_2) conns=(D,WG) kvs=(12.470,0.480 ) kvas=(1000.0,1000.0) xhl=4.380 %rs=(0.77,0.77) xhl=4.380 maxtap=1.05 mintap=0.95 numtaps=4
New Transformer.T_20_TENEYA windings=2 buses=(BUS_T_20_PRI,TENEYA) conns=(D,WG) kvs=(12.470,0.208 ) kvas=(750.0,750.0) xhl=5.660 %rs=(1.08,1.08) xhl=5.660 maxtap=1.05 mintap=0.95 numtaps=4
New Transformer.T_200_UREY windings=2 buses=(SS_97_RC,LC_A_UREY) conns=(D,D) kvs=(12.470,0.208 ) kvas=(1000.0,1333.0) xhl=5.950 %rs=(1.04,1.04) xhl=5.950 maxtap=1.05 mintap=0.95 numtaps=4
New Transformer.T_202_SEAWEED windings=2 buses=(SS_64_SIO,SEAWEED_CAN) conns=(D,WG) kvs=(12.470,0.480 ) kvas=(500.0,500.0) xhl=2.640 %rs=(0.56,0.56) xhl=2.640 maxtap=1.05 mintap=0.95 numtaps=4
New Transformer.T_203_IGPP windings=2 buses=(SS_67_SIO,IGPP_SUB) conns=(D,WG) kvs=(12.470,0.480 ) kvas=(750.0,750.0) xhl=5.800 %rs=(1.11,1.11) xhl=5.800 maxtap=1.05 mintap=0.95 numtaps=4
New Transformer.T_204 windings=2 buses=(SDG&E_69KV,T_204_SEC) conns=(D,WG) kvs=(69.000,12.470 ) kvas=(16800.0,28000.0) xhl=7.550 %rs=(0.36,0.36) xhl=7.550 maxtap=1.05 mintap=0.95 numtaps=16
New Transformer.T_205 windings=2 buses=(SDG&E_69KV,T_205_SEC) conns=(D,WG) kvs=(69.000,12.470 ) kvas=(16800.0,28000.0) xhl=7.610 %rs=(0.37,0.37) xhl=7.610 maxtap=1.05 mintap=0.95 numtaps=16 sub=y
New Transformer.T_206_3RD_C windings=2 buses=(3RD_C_S206PRI,3RD_C_APT_206) conns=(D,WG) kvs=(12.470,0.208 ) kvas=(150.0,150.0) xhl=3.470 %rs=(0.97,0.97) xhl=3.470 maxtap=1.05 mintap=0.95 numtaps=4
New Transformer.T_207_3RD_C windings=2 buses=(T_207_PRI,T_207_SEC) conns=(D,WG) kvs=(12.470,0.208 ) kvas=(300.0,300.0) xhl=3.880 %rs=(0.93,0.93) xhl=3.880 maxtap=1.05 mintap=0.95 numtaps=4
New Transformer.T_209_CPA windings=2 buses=(T_053,US_CPA) conns=(D,WG) kvs=(12.470,0.480 ) kvas=(2500.0,3333.0) xhl=6.250 %rs=(0.78,0.78) xhl=6.250 maxtap=1.05 mintap=0.95 numtaps=4
New Transformer.T_210_HW windings=2 buses=(T_051,US_HW) conns=(D,WG) kvs=(12.470,0.480 ) kvas=(1500.0,2000.0) xhl=6.200 %rs=(0.89,0.89) xhl=6.200 maxtap=1.05 mintap=0.95 numtaps=4
New Transformer.T_211_HE windings=2 buses=(T_049,US_HE) conns=(D,WG) kvs=(12.470,0.480 ) kvas=(1500.0,2000.0) xhl=6.210 %rs=(0.89,0.89) xhl=6.210 maxtap=1.05 mintap=0.95 numtaps=4
New Transformer.T_212_PAC_HALL_T2 windings=2 buses=(SW_T_057/058,PACIFIC_H_T2) conns=(D,WG) kvs=(12.470,0.208 ) kvas=(1000.0,1333.0) xhl=6.110 %rs=(1.07,1.07) xhl=6.110 maxtap=1.05 mintap=0.95 numtaps=4
New Transformer.T_213_PAC_HALL_T1 windings=2 buses=(SW_T_055/056,PACIFIC_H_T1) conns=(D,WG) kvs=(12.470,0.208 ) kvas=(1000.0,1333.0) xhl=5.910 %rs=(1.03,1.03) xhl=5.910 maxtap=1.05 mintap=0.95 numtaps=4
New Transformer.T_214_PAC_HALL_T3 windings=2 buses=(SW_T_059/060,PACIFIC_H_T3) conns=(D,WG) kvs=(12.470,0.480 ) kvas=(2500.0,3333.0) xhl=6.170 %rs=(0.59,0.59) xhl=6.170 maxtap=1.05 mintap=0.95 numtaps=4
New Transformer.T_215_CV_CAF windings=2 buses=(SW_T_061/062,CANYON_VIEW) conns=(D,WG) kvs=(12.470,0.480 ) kvas=(1500.0,2000.0) xhl=6.690 %rs=(0.96,0.96) xhl=6.690 maxtap=1.05 mintap=0.95 numtaps=4
New Transformer.T_216_VISUAL_A windings=2 buses=(SS_110_VIS_A,VISUAL_ARTS) conns=(D,WG) kvs=(12.470,0.480 ) kvas=(1500.0,1500.0) xhl=5.760 %rs=(0.88,0.88) xhl=5.760 maxtap=1.05 mintap=0.95 numtaps=4
New Transformer.T_217_S_EBU2 windings=2 buses=(S_EBU2_PRI,S_EBU2) conns=(D,WG) kvs=(12.470,0.480 ) kvas=(2000.0,2667.0) xhl=5.940 %rs=(0.74,0.74) xhl=5.940 maxtap=1.05 mintap=0.95 numtaps=4
New Transformer.T_218_N_EBU2 windings=2 buses=(SW_T_069/070,US_N_EBU2) conns=(D,WG) kvs=(12.470,0.480 ) kvas=(2000.0,2667.0) xhl=5.890 %rs=(0.81,0.81) xhl=5.890 maxtap=1.05 mintap=0.95 numtaps=4
New Transformer.T_219_RIMAC_US_1W windings=2 buses=(SW_T_071/072,US_2_RIMAC) conns=(D,WG) kvs=(12.470,0.480 ) kvas=(1500.0,1500.0) xhl=5.800 %rs=(0.89,0.89) xhl=5.800 maxtap=1.05 mintap=0.95 numtaps=4
New Transformer.T_220_RIMAC_US_1E windings=2 buses=(SW_T_073/074,US_1_RIMAC) conns=(D,WG) kvs=(12.470,0.480 ) kvas=(1500.0,1500.0) xhl=5.390 %rs=(0.82,0.82) xhl=5.390 maxtap=1.05 mintap=0.95 numtaps=4
New Transformer.T_221_EBU2_LAB   windings=2 buses=(EBU2_LAB_PRI,EBU2_LAB) conns=(D,WG) kvs=(12.470,0.480 ) kvas=(2500.0,3500.0) xhl=5.770 %rs=(0.72,0.72) xhl=5.770 maxtap=1.05 mintap=0.95 numtaps=4
New Transformer.T_222_IGPP_II windings=2 buses=(SS_27_SIO,IGPP2) conns=(D,WG) kvs=(12.470,0.208 ) kvas=(750.0,750.0) xhl=5.560 %rs=(1.06,1.06) xhl=5.560 maxtap=1.05 mintap=0.95 numtaps=4
New Transformer.T_223_BIRCH_AQ windings=2 buses=(BUS_T_223_PRI,BIRCH_AQUARIUM) conns=(D,WG) kvs=(12.470,0.480 ) kvas=(750.0,1000.0) xhl=5.700 %rs=(1.09,1.09) xhl=5.700 maxtap=1.05 mintap=0.95 numtaps=4
New Transformer.T_224_SVERDRUP_US1 windings=2 buses=(SVERD_US1_PRI,SVERDRUP_US1) conns=(D,WG) kvs=(12.470,0.208 ) kvas=(750.0,1000.0) xhl=5.500 %rs=(1.05,1.05) xhl=5.500 maxtap=1.05 mintap=0.95 numtaps=4
New Transformer.T_225_SVERDRUP_US2 windings=2 buses=(SVERD_US2_PRI,SVERDRUP_US2) conns=(D,WG) kvs=(12.470,0.208 ) kvas=(750.0,1000.0) xhl=5.500 %rs=(1.05,1.05) xhl=5.500 maxtap=1.05 mintap=0.95 numtaps=4
New Transformer.T_227_E_CMM windings=2 buses=(SW_T_227,EAST_CMM_S227) conns=(D,WG) kvs=(12.470,0.480 ) kvas=(2000.0,2667.0) xhl=5.980 %rs=(0.82,0.82) xhl=5.980 maxtap=1.05 mintap=0.95 numtaps=4
New Transformer.T_228_E_CMM windings=2 buses=(SW_T_228,EAST_CMM_S228) conns=(D,WG) kvs=(12.470,0.480 ) kvas=(1500.0,2000.0) xhl=5.840 %rs=(0.89,0.89) xhl=5.840 maxtap=1.05 mintap=0.95 numtaps=4
New Transformer.T_229_IOF_PH2 windings=2 buses=(BUS_T_229_PRI,IN_OF_AMER_P2) conns=(D,WG) kvs=(12.470,0.208 ) kvas=(300.0,300.0) xhl=3.990 %rs=(0.96,0.96) xhl=3.990 maxtap=1.05 mintap=0.95 numtaps=4
New Transformer.T_230_CT_5&6 windings=2 buses=(BUS_T_230_PRI,T_230_SEC) conns=(D,WG) kvs=(12.470,0.480 ) kvas=(2000.0,2240.0) xhl=5.570 %rs=(0.76,0.76) xhl=5.570 maxtap=1.05 mintap=0.95 numtaps=4
New Transformer.T_231_CT_3&4 windings=2 buses=(SW_T_087,T_231_SEC) conns=(D,WG) kvs=(12.470,0.480 ) kvas=(1500.0,1500.0) xhl=5.630 %rs=(0.86,0.86) xhl=5.630 maxtap=1.05 mintap=0.95 numtaps=4
New Transformer.T_233_US_8 windings=2 buses=(BUS_T_233_PRI,US8) conns=(D,WG) kvs=(12.470,4.160 ) kvas=(2500.0,2800.0) xhl=5.530 %rs=(0.53,0.53) xhl=5.530 maxtap=1.05 mintap=0.95 numtaps=4
New Transformer.T_234_US_TD windings=2 buses=(BUS_T_234_PRI,DB_CP) conns=(D,WG) kvs=(12.470,4.160 ) kvas=(2500.0,2500.0) xhl=5.380 %rs=(0.51,0.51) xhl=5.380 maxtap=1.05 mintap=0.95 numtaps=4
New Transformer.T_236_TB windings=2 buses=(BUS_T_236_PRI,TB_SEC) conns=(D,WG) kvs=(12.470,0.480 ) kvas=(1000.0,1000.0) xhl=4.930 %rs=(0.86,0.86) xhl=4.930 maxtap=1.05 mintap=0.95 numtaps=4
New Transformer.T_238_CENT_HALL windings=2 buses=(BUS_T_238_PRI,CENT_HALL) conns=(D,WG) kvs=(12.470,0.480 ) kvas=(750.0,750.0) xhl=5.510 %rs=(1.05,1.05) xhl=5.510 maxtap=1.05 mintap=0.95 numtaps=4
New Transformer.T_239_CAREER_SERV windings=2 buses=(BUS_T_239_PRI,MDP) conns=(D,WG) kvs=(12.470,0.208 ) kvas=(225.0,225.0) xhl=3.680 %rs=(0.94,0.94) xhl=3.680 maxtap=1.05 mintap=0.95 numtaps=4
New Transformer.T_240_SOCIAL_SCI windings=2 buses=(SW_T_092,US_SS) conns=(D,WG) kvs=(12.470,0.480 ) kvas=(750.0,1000.0) xhl=5.890 %rs=(1.12,1.12) xhl=5.890 maxtap=1.05 mintap=0.95 numtaps=4
New Transformer.T_241_MAT_HAND windings=2 buses=(M_HAND_PRI,MAT_HANDLING) conns=(D,WG) kvs=(12.470,0.480 ) kvas=(750.0,750.0) xhl=5.640 %rs=(1.13,1.13) xhl=5.640 maxtap=1.05 mintap=0.95 numtaps=4
New Transformer.T_242_ATHL_FIELD windings=2 buses=(T_242_PRI,ATHLETIC_FIELD) conns=(D,WG) kvs=(12.470,0.480 ) kvas=(750.0,750.0) xhl=5.240 %rs=(1.00,1.00) xhl=5.240 maxtap=1.05 mintap=0.95 numtaps=4
New Transformer.T_244_CT_3&4 windings=2 buses=(T_244_PRI,T_244_SEC) conns=(D,WG) kvs=(4.160,0.480 ) kvas=(1000.0,1120.0) xhl=5.430 %rs=(0.95,0.95) xhl=5.430 maxtap=1.05 mintap=0.95 numtaps=4
New Transformer.T_246_SERF_BLDG windings=2 buses=(SERF_BLDG_PRI,SERF_BLDG) conns=(D,WG) kvs=(12.470,0.480 ) kvas=(2000.0,2667.0) xhl=6.100 %rs=(0.76,0.76) xhl=6.100 maxtap=1.05 mintap=0.95 numtaps=4
New Transformer.T_247_BONNER_LCC windings=2 buses=(SW_T_121_1,BONNER_LC_C) conns=(D,WG) kvs=(12.470,0.208 ) kvas=(1000.0,1000.0) xhl=6.080 %rs=(1.06,1.06) xhl=6.080 maxtap=1.05 mintap=0.95 numtaps=4
New Transformer.T_248 windings=2 buses=(BUS_T_248_PRI,COAST_APT_2) conns=(D,WG) kvs=(12.470,0.240 ) kvas=(167.0,167.0) xhl=1.740 %rs=(0.47,0.47) xhl=1.740 maxtap=1.05 mintap=0.95 numtaps=4
New Transformer.T_249 windings=2 buses=(BUS_T_249_PRI,T_249_SEC) conns=(D,WG) kvs=(12.470,0.240 ) kvas=(167.0,167.0) xhl=3.180 %rs=(0.87,0.87) xhl=3.180 maxtap=1.05 mintap=0.95 numtaps=4
New Transformer.T_250 windings=2 buses=(TERM_CABINET,COAST_APT) conns=(D,WG) kvs=(12.470,0.240 ) kvas=(167.0,167.0) xhl=1.450 %rs=(0.40,0.40) xhl=1.450 maxtap=1.05 mintap=0.95 numtaps=4
New Transformer.T_251_BSCI_S6 windings=2 buses=(BUS_T_251_PRI,BASIC_SCI_SUB6) conns=(D,WG) kvs=(12.470,0.208 ) kvas=(1000.0,1333.0) xhl=5.410 %rs=(0.95,0.95) xhl=5.410 maxtap=1.05 mintap=0.95 numtaps=4
New Transformer.T_252_MARSH_SUB1 windings=2 buses=(BUS_T_252_PRI,MARSHALL_SUB1) conns=(D,WG) kvs=(12.470,0.208 ) kvas=(500.0,500.0) xhl=5.480 %rs=(1.17,1.17) xhl=5.480 maxtap=1.05 mintap=0.95 numtaps=4
New Transformer.T_253_CR_UNION windings=2 buses=(T_253_PRI,CREDIT_UNION) conns=(D,WG) kvs=(12.470,0.208 ) kvas=(150.0,150.0) xhl=5.770 %rs=(1.23,1.23) xhl=5.770 maxtap=1.05 mintap=0.95 numtaps=4
New Transformer.T_255_IMG windings=2 buses=(SS_11_SOM,IMG) conns=(D,WG) kvs=(12.470,0.480 ) kvas=(750.0,840.0) xhl=5.250 %rs=(1.00,1.00) xhl=5.250 maxtap=1.05 mintap=0.95 numtaps=4
New Transformer.T_256_SCHOL_HAL windings=2 buses=(T_256_PRI,SCHOLANDER_HAL) conns=(D,WG) kvs=(12.470,0.208 ) kvas=(300.0,300.0) xhl=1.480 %rs=(0.36,0.36) xhl=1.480 maxtap=1.05 mintap=0.95 numtaps=4
New Transformer.T_257_DANCE_STUDIO windings=2 buses=(BUS_T_257_PRI,DANCE_STUDIO) conns=(D,WG) kvs=(12.470,0.208 ) kvas=(300.0,300.0) xhl=3.150 %rs=(0.76,0.76) xhl=3.150 maxtap=1.05 mintap=0.95 numtaps=4
New Transformer.T_258_CELL_SITE windings=2 buses=(BUS_T_258_PRI,CELL_SITE) conns=(D,WG) kvs=(12.470,0.480 ) kvas=(225.0,252.0) xhl=3.290 %rs=(0.85,0.85) xhl=3.290 maxtap=1.05 mintap=0.95 numtaps=4
New Transformer.T_259 windings=2 buses=(BUS_T_259_PRI,T_259_SEC) conns=(D,WG) kvs=(4.160,0.208 ) kvas=(150.0,150.0) xhl=3.800 %rs=(1.06,1.06) xhl=3.800 maxtap=1.05 mintap=0.95 numtaps=4
New Transformer.T_260 windings=2 buses=(BUS_T_260_PRI,ED4) conns=(D,WG) kvs=(4.160,0.208 ) kvas=(225.0,225.0) xhl=4.960 %rs=(1.27,1.27) xhl=4.960 maxtap=1.05 mintap=0.95 numtaps=4
New Transformer.T_264_ENDUR_SUB1 windings=2 buses=(BUS_T_264_PRI,USR1) conns=(D,WG) kvs=(12.470,0.480 ) kvas=(1500.0,1500.0) xhl=5.890 %rs=(0.90,0.90) xhl=5.890 maxtap=1.05 mintap=0.95 numtaps=4
New Transformer.T_265_ENDUR_SUB2 windings=2 buses=(BUS_T_265_PRI,USR2) conns=(D,WG) kvs=(12.470,0.480 ) kvas=(500.0,500.0) xhl=5.730 %rs=(1.22,1.22) xhl=5.730 maxtap=1.05 mintap=0.95 numtaps=4
New Transformer.T_267_OARF windings=2 buses=(BUS_T_267_PRI,OARF) conns=(D,WG) kvs=(12.470,0.480 ) kvas=(1500.0,1500.0) xhl=5.640 %rs=(0.86,0.86) xhl=5.640 maxtap=1.05 mintap=0.95 numtaps=4
New Transformer.T_268_GALBRAITH windings=2 buses=(SW_T_095,GALBRAITH_HALL) conns=(D,WG) kvs=(12.470,0.480 ) kvas=(1500.0,2000.0) xhl=5.560 %rs=(0.85,0.85) xhl=5.560 maxtap=1.05 mintap=0.95 numtaps=4
New Transformer.T_269_ERC windings=2 buses=(T_269_PRI,ERC) conns=(D,WG) kvs=(12.470,2.400 ) kvas=(500.0,500.0) xhl=5.380 %rs=(1.15,1.15) xhl=5.380 maxtap=1.05 mintap=0.95 numtaps=4
New Transformer.T_270_REGENTS windings=2 buses=(T_270_PRI,T_270_SEC) conns=(D,WG) kvs=(12.470,0.480 ) kvas=(75.0,75.0) xhl=3.790 %rs=(1.26,1.26) xhl=3.790 maxtap=1.05 mintap=0.95 numtaps=4
New Transformer.T_271_OLD_R_HALL windings=2 buses=(BUS_T_271_PRI,OLD_RITTER_HAL) conns=(D,WG) kvs=(12.470,0.480 ) kvas=(750.0,750.0) xhl=5.500 %rs=(1.05,1.05) xhl=5.500 maxtap=1.05 mintap=0.95 numtaps=4
New Transformer.T_272_MAAC_BLDG windings=2 buses=(T_272_PRI,MAAC_BLDGS) conns=(D,WG) kvs=(12.470,0.208 ) kvas=(1000.0,1000.0) xhl=5.710 %rs=(1.00,1.00) xhl=5.710 maxtap=1.05 mintap=0.95 numtaps=4
New Transformer.T_273_MAYER windings=2 buses=(SS_70_RC,MAYER_208V) conns=(D,WG) kvs=(12.470,0.208 ) kvas=(1000.0,1333.0) xhl=5.250 %rs=(0.92,0.92) xhl=5.250 maxtap=1.05 mintap=0.95 numtaps=4
New Transformer.T_274_YORK windings=2 buses=(BUS_T_274_PRI,T_274_SEC) conns=(D,WG) kvs=(4.160,0.480 ) kvas=(300.0,300.0) xhl=4.960 %rs=(1.19,1.19) xhl=4.960 maxtap=1.05 mintap=0.95 numtaps=4
New Transformer.T_275_MAYER windings=2 buses=(BUS_T_275_PRI,T_275_SEC) conns=(D,WG) kvs=(4.160,0.480 ) kvas=(225.0,225.0) xhl=5.570 %rs=(1.19,1.19) xhl=5.570 maxtap=1.05 mintap=0.95 numtaps=4
New Transformer.T_276_BONNER windings=2 buses=(BUS_T_276_PRI,DB_EM) conns=(D,WG) kvs=(4.160,0.480 ) kvas=(500.0,500.0) xhl=5.200 %rs=(1.11,1.11) xhl=5.200 maxtap=1.05 mintap=0.95 numtaps=4
New Transformer.T_277 windings=2 buses=(SDG&E_69KV,T_277_SEC) conns=(D,WG) kvs=(69.000,12.470 ) kvas=(16800.0,28000.0) xhl=7.430 %rs=(0.36,0.36) xhl=7.430 maxtap=1.05 mintap=0.95 numtaps=16
New Transformer.T_278_YORK_SUB2 windings=2 buses=(SW_YORK_SUB2,DBN) conns=(D,WG) kvs=(12.470,0.208 ) kvas=(1000.0,1000.0) xhl=6.030 %rs=(1.06,1.06) xhl=6.030 maxtap=1.05 mintap=0.95 numtaps=4
New Transformer.T_279_YORK_SUB3 windings=2 buses=(SW_YORK_SUB_3,DBN_1) conns=(D,WG) kvs=(12.470,0.480 ) kvas=(500.0,500.0) xhl=5.200 %rs=(1.11,1.11) xhl=5.200 maxtap=1.05 mintap=0.95 numtaps=4
New Transformer.T_280_YORK_SUB1 windings=2 buses=(SW_YORK_SUB1,DBS) conns=(D,WG) kvs=(12.470,0.208 ) kvas=(750.0,750.0) xhl=5.600 %rs=(1.07,1.07) xhl=5.600 maxtap=1.05 mintap=0.95 numtaps=4
New Transformer.T_281_GILMAN windings=2 buses=(T_281_PRI,GILMAN_PARKING) conns=(D,WG) kvs=(12.470,0.480 ) kvas=(750.0,840.0) xhl=5.700 %rs=(1.09,1.09) xhl=5.700 maxtap=1.05 mintap=0.95 numtaps=4
New Transformer.T_282_SCRIPPS windings=2 buses=(SS_52_SIO,SCRIPPS_BLDG) conns=(D,WG) kvs=(12.470,0.208 ) kvas=(300.0,300.0) xhl=3.910 %rs=(0.94,0.94) xhl=3.910 maxtap=1.05 mintap=0.95 numtaps=4
New Transformer.T_283_PREUSS windings=2 buses=(BUS_T_287_PRI,PREUSS_SCHOOL) conns=(D,WG) kvs=(12.470,0.480 ) kvas=(1000.0,1000.0) xhl=5.860 %rs=(1.03,1.03) xhl=5.860 maxtap=1.05 mintap=0.95 numtaps=4
New Transformer.T_284_NC_PARKING windings=2 buses=(BUS_T_284_PRI,NC_PARKING_480) conns=(D,WG) kvs=(12.470,0.480 ) kvas=(500.0,500.0) xhl=6.260 %rs=(1.33,1.33) xhl=6.260 maxtap=1.05 mintap=0.95 numtaps=4
New Transformer.T_288_BS windings=2 buses=(T_288_PRI,SUB_BS) conns=(D,WG) kvs=(4.160,0.480 ) kvas=(2000.0,2300.0) xhl=5.480 %rs=(0.75,0.75) xhl=5.480 maxtap=1.05 mintap=0.95 numtaps=4
New Transformer.T_289_BLDG_3E windings=2 buses=(SS_53_TMC,ECON_3E) conns=(D,WG) kvs=(12.470,0.480 ) kvas=(500.0,500.0) xhl=3.720 %rs=(0.79,0.79) xhl=3.720 maxtap=1.05 mintap=0.95 numtaps=4
New Transformer.T_290_STUD windings=2 buses=(BUS_T_290_PRI,STUDENT_T224) conns=(D,WG) kvs=(12.470,0.208 ) kvas=(500.0,500.0) xhl=4.470 %rs=(0.95,0.95) xhl=4.470 maxtap=1.05 mintap=0.95 numtaps=4
New Transformer.T_291_BRAIN_IMAG windings=2 buses=(PRI_BIO_MED_1,BRAIN_IMG_SEC) conns=(D,WG) kvs=(12.470,0.480 ) kvas=(750.0,1000.0) xhl=5.810 %rs=(1.11,1.11) xhl=5.810 maxtap=1.05 mintap=0.95 numtaps=4
New Transformer.T_292_UNEX windings=2 buses=(BUS_T_292_PRI,UNEX_MSB) conns=(D,WG) kvs=(12.470,0.208 ) kvas=(750.0,750.0) xhl=5.300 %rs=(1.01,1.01) xhl=5.300 maxtap=1.05 mintap=0.95 numtaps=4
New Transformer.T_293_SS_BA windings=2 buses=(BUS_T_293_PRI,SS_BA) conns=(D,WG) kvs=(12.470,0.480 ) kvas=(1000.0,1333.0) xhl=5.680 %rs=(1.00,1.00) xhl=5.680 maxtap=1.05 mintap=0.95 numtaps=4
New Transformer.T_294_SS_BB windings=2 buses=(BUS_T_294_PRI,SS_BB) conns=(D,WG) kvs=(12.470,0.480 ) kvas=(1000.0,1333.0) xhl=5.730 %rs=(1.00,1.00) xhl=5.730 maxtap=1.05 mintap=0.95 numtaps=4
New Transformer.T_295_SS_BC windings=2 buses=(BUS_T_295_PRI,SS_BC) conns=(D,WG) kvs=(12.470,0.480 ) kvas=(1500.0,2000.0) xhl=5.950 %rs=(0.91,0.91) xhl=5.950 maxtap=1.05 mintap=0.95 numtaps=4
New Transformer.T_296_MATTH_SUB windings=2 buses=(SS_85_MATTH_SUB,MATTHEWS_SUB) conns=(D,WG) kvs=(12.470,0.480 ) kvas=(750.0,750.0) xhl=5.710 %rs=(1.09,1.09) xhl=5.710 maxtap=1.05 mintap=0.95 numtaps=4
New Transformer.T_297_EBU_3A windings=2 buses=(SW_T_297,EBU_3A_SSB) conns=(D,WG) kvs=(12.470,0.480 ) kvas=(1500.0,2000.0) xhl=5.690 %rs=(0.87,0.87) xhl=5.690 maxtap=1.05 mintap=0.95 numtaps=4
New Transformer.T_298_EBU_3A windings=2 buses=(SW_T_298,EBU_3A1_SSA) conns=(D,WG) kvs=(12.470,0.480 ) kvas=(1500.0,2000.0) xhl=5.700 %rs=(0.87,0.87) xhl=5.700 maxtap=1.05 mintap=0.95 numtaps=4
New Transformer.T_299_ERC windings=2 buses=(BUS_T_299_PRI,T_299_SEC) conns=(D,WG) kvs=(12.470,0.480 ) kvas=(1000.0,1120.0) xhl=5.610 %rs=(0.98,0.98) xhl=5.610 maxtap=1.05 mintap=0.95 numtaps=4
New Transformer.T_300_HD_3 windings=2 buses=(BUS_T_300_PRI,HD_3) conns=(D,WG) kvs=(12.470,0.480 ) kvas=(1500.0,1680.0) xhl=5.630 %rs=(0.86,0.86) xhl=5.630 maxtap=1.05 mintap=0.95 numtaps=4
New Transformer.T_301_HD_1 windings=2 buses=(BUS_T_301_PRI,HD_1) conns=(D,WG) kvs=(12.470,0.480 ) kvas=(1000.0,1120.0) xhl=5.780 %rs=(1.01,1.01) xhl=5.780 maxtap=1.05 mintap=0.95 numtaps=4
New Transformer.T_302_HD_2 windings=2 buses=(BUS_T_302_PRI,HD_2) conns=(D,WG) kvs=(12.470,0.480 ) kvas=(1000.0,1120.0) xhl=5.910 %rs=(1.03,1.03) xhl=5.910 maxtap=1.05 mintap=0.95 numtaps=4
New Transformer.T_303_BALLOON windings=2 buses=(BUS_T_303_PRI,BALLON_BLDG) conns=(D,WG) kvs=(12.470,0.480 ) kvas=(300.0,300.0) xhl=5.610 %rs=(1.35,1.35) xhl=5.610 maxtap=1.05 mintap=0.95 numtaps=4
New Transformer.T_304_EC_PS windings=2 buses=(BUS_PD_T_304,BUS_T_304_EC_PS_SEC) conns=(D,WG) kvs=(12.470,0.480 ) kvas=(500.0,500.0) xhl=2.120 %rs=(0.45,0.45) xhl=2.120 maxtap=1.05 mintap=0.95 numtaps=4
New Transformer.T_305 windings=2 buses=(T_305_PRI,EC_OFFICE_BLDG) conns=(D,WG) kvs=(12.470,0.480 ) kvas=(1000.0,1000.0) xhl=5.660 %rs=(0.99,0.99) xhl=5.660 maxtap=1.05 mintap=0.95 numtaps=4
New Transformer.T_306_SHILEY windings=2 buses=(PRI_T_306_SHILEY,SHILEY_EYE_CTR) conns=(D,WG) kvs=(12.470,0.480 ) kvas=(1000.0,1150.0) xhl=5.770 %rs=(1.01,1.01) xhl=5.770 maxtap=1.05 mintap=0.95 numtaps=4
New Transformer.T_307_USNL_B windings=2 buses=(T_307_PRI,USNLB_CC) conns=(D,WG) kvs=(12.470,0.480 ) kvas=(2000.0,3000.0) xhl=5.410 %rs=(0.74,0.74) xhl=5.410 maxtap=1.05 mintap=0.95 numtaps=4
New Transformer.T_308_USNL_A windings=2 buses=(T_308_PRI,USNLA_CC) conns=(D,WG) kvs=(12.470,0.480 ) kvas=(2000.0,3000.0) xhl=5.440 %rs=(0.75,0.75) xhl=5.440 maxtap=1.05 mintap=0.95 numtaps=4
New Transformer.T_309_SHILEY windings=2 buses=(PRI_T_309_SHILEY,SHILEY_US_EM) conns=(D,WG) kvs=(12.470,0.480 ) kvas=(300.0,300.0) xhl=4.780 %rs=(1.15,1.15) xhl=4.780 maxtap=1.05 mintap=0.95 numtaps=4
New Transformer.T_310_USEM_A windings=2 buses=(PRI_T_USEM_A,USEM_A_CC) conns=(D,WG) kvs=(12.470,0.480 ) kvas=(1000.0,1500.0) xhl=5.080 %rs=(0.89,0.89) xhl=5.080 maxtap=1.05 mintap=0.95 numtaps=4
New Transformer.T_311_USEM_B windings=2 buses=(PRI_T_USEM_B,USEM_B_CC) conns=(D,WG) kvs=(12.470,0.480 ) kvas=(1000.0,1500.0) xhl=5.110 %rs=(0.90,0.90) xhl=5.110 maxtap=1.05 mintap=0.95 numtaps=4
New Transformer.T_313_LIECHTAG windings=2 buses=(BUS_T_313_PRI,T_313_SEC) conns=(D,WG) kvs=(4.160,0.480 ) kvas=(1000.0,1333.0) xhl=5.770 %rs=(1.01,1.01) xhl=5.770 maxtap=1.05 mintap=0.95 numtaps=4
New Transformer.T_314_B windings=2 buses=(BUS_T_314_PRI,SOM_B) conns=(D,WG) kvs=(12.470,0.480 ) kvas=(1500.0,2000.0) xhl=5.790 %rs=(0.89,0.89) xhl=5.790 maxtap=1.05 mintap=0.95 numtaps=4
New Transformer.T_315_C windings=2 buses=(BUS_T_315_PRI,SOM_C) conns=(D,WG) kvs=(12.470,0.480 ) kvas=(1500.0,2000.0) xhl=5.920 %rs=(0.91,0.91) xhl=5.920 maxtap=1.05 mintap=0.95 numtaps=4
New Transformer.T_316_A windings=2 buses=(BUS_T_316_PRI,SOM_A) conns=(D,WG) kvs=(12.470,0.480 ) kvas=(1500.0,2000.0) xhl=5.760 %rs=(0.88,0.88) xhl=5.760 maxtap=1.05 mintap=0.95 numtaps=4
New Transformer.T_317_MC windings=2 buses=(BUS_T_317_PRI,T_317_SEC) conns=(D,WG) kvs=(12.470,0.208 ) kvas=(150.0,150.0) xhl=4.000 %rs=(1.11,1.11) xhl=4.000 maxtap=1.05 mintap=0.95 numtaps=4
New Transformer.T_318_MULTIP_BLD windings=2 buses=(BUS_T_318_PRI,MULT_BLD_SEC) conns=(D,WG) kvs=(12.470,0.480 ) kvas=(750.0,1000.0) xhl=5.400 %rs=(1.03,1.03) xhl=5.400 maxtap=1.05 mintap=0.95 numtaps=4
New Transformer.T_319_US_7N windings=2 buses=(T_319_PRI,US_7N) conns=(D,WG) kvs=(12.470,0.480 ) kvas=(2000.0,2000.0) xhl=5.760 %rs=(0.79,0.79) xhl=5.760 maxtap=1.05 mintap=0.95 numtaps=4
New Transformer.T_320_LA_JOLLA windings=2 buses=(BLACK_BOX_PRI,LA_JOLLA_PLAY) conns=(D,WG) kvs=(12.470,0.480 ) kvas=(1500.0,1500.0) xhl=5.750 %rs=(0.88,0.88) xhl=5.750 maxtap=1.05 mintap=0.95 numtaps=4
New Transformer.T_321_CAL_IT1B windings=2 buses=(US1B,CAL_IT_US1B) conns=(D,WG) kvs=(12.470,0.480 ) kvas=(1500.0,2000.0) xhl=6.320 %rs=(0.97,0.97) xhl=6.320 maxtap=1.05 mintap=0.95 numtaps=4
New Transformer.T_322_CAL_IT1C windings=2 buses=(US1C,CAL_IT_US1C) conns=(D,WG) kvs=(12.470,0.480 ) kvas=(1500.0,2000.0) xhl=6.320 %rs=(0.97,0.97) xhl=6.320 maxtap=1.05 mintap=0.95 numtaps=4
New Transformer.T_323_CAL_IT1A windings=2 buses=(T_323_PRI,CAL_IT_US1A) conns=(D,WG) kvs=(12.470,0.480 ) kvas=(1500.0,2000.0) xhl=6.350 %rs=(0.97,0.97) xhl=6.350 maxtap=1.05 mintap=0.95 numtaps=4
New Transformer.T_324_EBU_3B windings=2 buses=(SW_T_324,EBU_3B_SUB_A) conns=(D,WG) kvs=(12.470,0.480 ) kvas=(1500.0,2000.0) xhl=5.690 %rs=(0.87,0.87) xhl=5.690 maxtap=1.05 mintap=0.95 numtaps=4
New Transformer.T_325_EBU_3B1 windings=2 buses=(SW_T_325,EBU_3B1_SUB_B) conns=(D,WG) kvs=(12.470,0.480 ) kvas=(1500.0,2000.0) xhl=5.590 %rs=(0.85,0.85) xhl=5.590 maxtap=1.05 mintap=0.95 numtaps=4
New Transformer.T_326 windings=2 buses=(BUS_T_326_PRI,T_326_SEC) conns=(D,WG) kvs=(12.470,0.480 ) kvas=(500.0,500.0) xhl=4.620 %rs=(0.98,0.98) xhl=4.620 maxtap=1.05 mintap=0.95 numtaps=4
New Transformer.T_327_BLK_BOX_REST windings=2 buses=(B_BOX_REST_PRI,B_BOX_REST) conns=(D,WG) kvs=(12.470,0.208 ) kvas=(300.0,300.0) xhl=3.900 %rs=(0.94,0.94) xhl=3.900 maxtap=1.05 mintap=0.95 numtaps=4
New Transformer.T_328_UREY windings=2 buses=(BUS_T_328_PRI,UREY_CCT) conns=(D,WG) kvs=(12.470,0.480 ) kvas=(1500.0,2000.0) xhl=5.960 %rs=(0.91,0.91) xhl=5.960 maxtap=1.05 mintap=0.95 numtaps=4
New Transformer.T_329_PHARM_B windings=2 buses=(T_PHARM_B_PRI,USB) conns=(D,WG) kvs=(12.470,0.480 ) kvas=(1000.0,1150.0) xhl=5.620 %rs=(0.98,0.98) xhl=5.620 maxtap=1.05 mintap=0.95 numtaps=4
New Transformer.T_330_PHARM_A windings=2 buses=(T_PHARM_A_PRI,USA) conns=(D,WG) kvs=(12.470,0.480 ) kvas=(1000.0,1150.0) xhl=5.600 %rs=(0.98,0.98) xhl=5.600 maxtap=1.05 mintap=0.95 numtaps=4
New Transformer.T_331_ESA_PHARMA windings=2 buses=(T_PHARM_ESA_P,PHARM_ESA) conns=(D,WG) kvs=(12.470,0.480 ) kvas=(1000.0,1150.0) xhl=5.640 %rs=(0.99,0.99) xhl=5.640 maxtap=1.05 mintap=0.95 numtaps=4
New Transformer.T_332_BASEBALL windings=2 buses=(BASEBALL_PRI,BASEBALL_SEC) conns=(D,WG) kvs=(12.470,0.480 ) kvas=(500.0,500.0) xhl=3.620 %rs=(0.77,0.77) xhl=3.620 maxtap=1.05 mintap=0.95 numtaps=4
New Transformer.T_333_US_3N windings=2 buses=(BUS_T_333_PRI,US_3N) conns=(D,WG) kvs=(12.470,0.480 ) kvas=(2000.0,2667.0) xhl=5.480 %rs=(0.75,0.75) xhl=5.480 maxtap=1.05 mintap=0.95 numtaps=4
New Transformer.T_334_BIO_MED windings=2 buses=(PRI_BIO_MED,BIO_MED_SEC) conns=(D,WG) kvs=(12.470,0.480 ) kvas=(1500.0,2000.0) xhl=5.710 %rs=(0.87,0.87) xhl=5.710 maxtap=1.05 mintap=0.95 numtaps=4
New Transformer.T_335_SUB_1A windings=2 buses=(BUS_T_335_PRI,SUB_1A) conns=(D,WG) kvs=(12.470,4.160 ) kvas=(3000.0,4000.0) xhl=5.070 %rs=(0.47,0.47) xhl=5.070 maxtap=1.05 mintap=0.95 numtaps=4
New Transformer.T_336_SUB_2A windings=2 buses=(BUS_T_336_PRI,SUB_2A) conns=(D,WG) kvs=(12.470,0.480 ) kvas=(1500.0,2000.0) xhl=5.770 %rs=(0.88,0.88) xhl=5.770 maxtap=1.05 mintap=0.95 numtaps=4
New Transformer.T_338_CSD2 windings=2 buses=(BUS_T_338_PRI,CSD2) conns=(D,WG) kvs=(12.470,0.480 ) kvas=(2000.0,2667.0) xhl=5.760 %rs=(0.79,0.79) xhl=5.760 maxtap=1.05 mintap=0.95 numtaps=4
New Transformer.T_339_DINING_COMM windings=2 buses=(DINING_COMM_PRI,DINING_COMMONS) conns=(D,WG) kvs=(12.470,0.208 ) kvas=(750.0,750.0) xhl=6.780 %rs=(1.44,1.44) xhl=6.780 maxtap=1.05 mintap=0.95 numtaps=4
New Transformer.T_341_STUD_ACAD windings=2 buses=(T_341_PRI,STUD_ACAD) conns=(D,WG) kvs=(12.470,0.480 ) kvas=(1500.0,2000.0) xhl=5.780 %rs=(0.88,0.88) xhl=5.780 maxtap=1.05 mintap=0.95 numtaps=4
New Transformer.T_342_ARGO_BLAKE windings=2 buses=(T_342_PRI,ARGO_BLAKE) conns=(D,WG) kvs=(12.470,0.480 ) kvas=(1000.0,1333.0) xhl=6.010 %rs=(1.05,1.05) xhl=6.010 maxtap=1.05 mintap=0.95 numtaps=4
...
!Transformers associated with EV loads
New Transformer.EV_BIRCH_P017 phases=3 windings=2 buses=(SS_64_SIO,EV_BIRCH_P017) conns=(D,D) kvs=(12.470,0.208) kvas=(75,75) xhl=3.230 %rs=(1.08,1.08) xhl=3.230 maxtap=1.05 mintap=0.95 numtaps=4
New Transformer.EV_ATHENA phases=3 windings=2 buses=(SS_125_MCSS,EV_ATHENA) conns=(D,D) kvs=(12.470,0.208) kvas=(75,75) xhl=3.230 %rs=(1.08,1.08) xhl=3.230 maxtap=1.05 mintap=0.95 numtaps=4
...